Materials Studio SDF calculation
TCVAMP81A 

 13  0  0  0  0  0              1 V2000
    1.2767    0.1191    0.9430 Mo  0  0
   -1.2897    0.4842    0.2057 Mo  0  0
   -0.2648   -0.9980    0.8037 C   0  0
    0.3210    1.4652   -0.0159 C   0  0
    1.1207    0.7656    2.7733 C   0  0
    0.0258    1.2213    3.3428 C   0  0
   -1.1853    1.3655    2.9095 C   0  0
   -1.9853    1.2123    1.8934 C   0  0
   -2.5093    2.1268   -0.8665 C   0  0
   -3.4909    1.6115   -0.7351 H   0  0
   -2.3407    2.2612   -1.9488 H   0  0
   -2.5819    3.0832   -0.3395 H   0  0
    0.4831    2.5528   -0.0406 H   0  0
M  END

> <TOTAL ENERGY>
BIOVIA, TYPE=DOUBLE, VERSION=1                                                  
 -8224.71686917

> <BINDING ENERGY>
BIOVIA, TYPE=DOUBLE, VERSION=1                                                  
    -2.29154145

> <HIRSHFELD CHARGE>
BIOVIA, TYPE=DOUBLE, ATOMISTIC, VERSION=1                                       
  1     0.48906659
  2     0.52473170
  3    -0.26197028
  4    -0.25362374
  5    -0.16729304
  6    -0.04834273
  7    -0.00766148
  8    -0.18563811
  9    -0.24256487
 10     0.03288574
 11     0.02709736
 12     0.02714100
 13     0.06654088

> <HOMO ENERGY>
BIOVIA, TYPE=DOUBLE, VERSION=1                                                  
    -0.17083716

> <LUMO ENERGY>
BIOVIA, TYPE=DOUBLE, VERSION=1                                                  
    -0.14774419

> <LUMO-HOMO ENERGY>
BIOVIA, TYPE=DOUBLE, VERSION=1                                                  
     0.02309296

> <MULLIKEN CHARGE>
BIOVIA, TYPE=DOUBLE, ATOMISTIC, VERSION=1                                       
  1     0.79480431
  2     1.01701492
  3    -0.42449745
  4    -0.82994797
  5    -0.27325922
  6    -0.01045664
  7     0.09876350
  8    -0.31985425
  9    -1.04010141
 10     0.25125939
 11     0.24323588
 12     0.23550633
 13     0.25753263

> <OPERATION STATUS>
BIOVIA, TYPE=STATUS, VERSION=1                                                  
SUCCESS

$$$$
