Materials Studio SDF calculation
TCVAMP81A 

 13  0  0  0  0  0              1 V2000
    1.2767    0.1191    0.9430 Mo  0  0
   -1.2897    0.4842    0.2057 Mo  0  0
   -0.2648   -0.9980    0.8037 C   0  0
    0.3210    1.4652   -0.0159 C   0  0
    1.1207    0.7656    2.7733 C   0  0
    0.0258    1.2213    3.3428 C   0  0
   -1.1853    1.3655    2.9095 C   0  0
   -1.9853    1.2123    1.8934 C   0  0
   -2.7174    1.1264   -1.3613 C   0  0
   -3.4735    0.4511   -0.9023 H   0  0
   -2.5980    0.8392   -2.4166 H   0  0
   -3.1640    2.1201   -1.2858 H   0  0
   -1.0338    1.8530   -0.8893 H   0  0
M  END

> <TOTAL ENERGY>
BIOVIA, TYPE=DOUBLE, VERSION=1                                                  
 -8222.42532772

> <BINDING ENERGY>
BIOVIA, TYPE=DOUBLE, VERSION=1                                                  
     0.00000000

> <ZERO POINT ENERGY>
BIOVIA, TYPE=DOUBLE, VERSION=1                                                  
    40.46913719

> <OPERATION STATUS>
BIOVIA, TYPE=STATUS, VERSION=1                                                  
SUCCESS

$$$$
