Materials Studio SDF calculation
TCVAMP81A 

  5  0  0  0  0  0              1 V2000
    0.0000    0.0000    0.0000 C   0  0
    0.6582    0.6582   -0.6582 H   0  0
   -0.6582   -0.6582   -0.6582 H   0  0
    0.6582   -0.6582    0.6582 H   0  0
   -0.6582    0.6582    0.6582 H   0  0
M  END

> <TOTAL ENERGY>
BIOVIA, TYPE=DOUBLE, VERSION=1                                                  
   -40.49254305

> <BINDING ENERGY>
BIOVIA, TYPE=DOUBLE, VERSION=1                                                  
    -0.66670677

> <HIRSHFELD CHARGE>
BIOVIA, TYPE=DOUBLE, ATOMISTIC, VERSION=1                                       
  1    -0.13172900
  2     0.03319639
  3     0.03319639
  4     0.03319639
  5     0.03319639

> <HOMO ENERGY>
BIOVIA, TYPE=DOUBLE, VERSION=1                                                  
    -0.34341890

> <LUMO ENERGY>
BIOVIA, TYPE=DOUBLE, VERSION=1                                                  
     0.10149322

> <LUMO-HOMO ENERGY>
BIOVIA, TYPE=DOUBLE, VERSION=1                                                  
     0.44491212

> <MULLIKEN CHARGE>
BIOVIA, TYPE=DOUBLE, ATOMISTIC, VERSION=1                                       
  1    -0.65841198
  2     0.16460300
  3     0.16460300
  4     0.16460300
  5     0.16460300

> <OPERATION STATUS>
BIOVIA, TYPE=STATUS, VERSION=1                                                  
SUCCESS

$$$$
